ligand.pdb
 OpenBabel06272414263D

 26 27  0  0  1  0  0  0  0  0999 V2000
    6.3310   13.9750   20.3380 P   0  0  0  0  0  0  0  0  0  0  0  0
    5.3900   14.0120   19.1520 O   0  0  0  0  0  0  0  0  0  0  0  0
    7.5780   14.7520   20.0700 O   0  0  0  0  0  0  0  0  0  0  0  0
    6.5230   12.6420   20.9150 O   0  0  0  0  0  0  0  0  0  0  0  0
    5.0150   11.7680   26.1130 P   0  0  0  0  0  0  0  0  0  0  0  0
    5.1290   11.5930   27.5610 O   0  0  0  0  0  0  0  0  0  0  0  0
    6.2860   11.6720   25.4090 O   0  0  0  0  0  0  0  0  0  0  0  0
    3.9070   11.0760   25.4710 O   0  0  0  0  0  0  0  0  0  0  0  0
    5.5810   14.7250   21.5180 O   0  0  0  0  0  0  0  0  0  0  0  0
    4.5760   14.1690   22.3780 C   0  0  0  0  0  0  0  0  0  0  0  0
    5.0710   14.2610   23.8170 C   0  0  1  0  0  0  0  0  0  0  0  0
    5.3360   15.6190   24.2010 O   0  0  0  0  0  0  0  0  0  0  0  0
    3.9920   13.8470   24.7520 C   0  0  1  0  0  0  0  0  0  0  0  0
    4.5940   13.3270   25.9700 O   0  0  0  0  0  0  0  0  0  0  0  0
    3.2340   15.1330   24.9630 C   0  0  0  0  0  0  0  0  0  0  0  0
    4.3240   16.1230   25.0920 C   0  0  2  0  0  0  0  0  0  0  0  0
    3.8710   17.4690   24.7020 N   0  0  0  0  0  0  0  0  0  0  0  0
    3.5540   18.3270   25.7080 C   0  0  0  0  0  0  0  0  0  0  0  0
    3.8460   18.1860   26.8730 O   0  0  0  0  0  0  0  0  0  0  0  0
    2.9340   19.4420   25.3690 N   0  0  0  0  0  0  0  0  0  0  0  0
    2.7170   19.8770   24.0810 C   0  0  0  0  0  0  0  0  0  0  0  0
    2.1260   20.9440   23.8940 O   0  0  0  0  0  0  0  0  0  0  0  0
    3.2110   19.0110   23.0370 C   0  0  0  0  0  0  0  0  0  0  0  0
    2.9730   19.4360   21.5660 C   0  0  0  0  0  0  0  0  0  0  0  0
    3.7860   17.8500   23.3850 C   0  0  0  0  0  0  0  0  0  0  0  0
    2.5820   20.0100   26.1250 H   0  0  0  0  0  0  0  0  0  0  0  0
  1  2  2  0  0  0  0
  1  3  1  0  0  0  0
  1  4  1  0  0  0  0
  1  9  1  0  0  0  0
  5  6  2  0  0  0  0
  5  7  1  0  0  0  0
  5  8  1  0  0  0  0
  5 14  1  0  0  0  0
  9 10  1  0  0  0  0
 11 10  1  6  0  0  0
 11 12  1  0  0  0  0
 11 13  1  0  0  0  0
 12 16  1  0  0  0  0
 13 14  1  1  0  0  0
 13 15  1  0  0  0  0
 16 15  1  6  0  0  0
 16 17  1  0  0  0  0
 17 18  1  0  0  0  0
 17 25  1  0  0  0  0
 18 19  2  0  0  0  0
 18 20  1  0  0  0  0
 20 21  1  0  0  0  0
 20 26  1  0  0  0  0
 21 22  2  0  0  0  0
 21 23  1  0  0  0  0
 23 24  1  0  0  0  0
 23 25  2  0  0  0  0
M  END
>  <REMARK>
   1 CREATED WITH OPENMM 8.1.1, 2024-06-27

$$$$
